data/pypsa_eur_fr400/network.xiidm
<?xml version="1.0" encoding="UTF-8"?>
<iidm:network xmlns:iidm="http://www.powsybl.org/schema/iidm/1_14" xmlns:reft="http://www.powsybl.org/schema/iidm/ext/reference_terminals/1_0" xmlns:slt="http://www.powsybl.org/schema/iidm/ext/slack_terminal/1_5" id="pypsa_eur_fr400" caseDate="2026-04-14T19:22:35.849Z" forecastDistance="0" sourceFormat="" minimumValidationLevel="STEADY_STATE_HYPOTHESIS">
    <iidm:substation id="SS_relation_13260100-400" name="SS_relation_13260100-400" country="FR">
        <iidm:voltageLevel id="VL_relation_13260100-400" nominalV="400.0" lowVoltageLimit="360.0" highVoltageLimit="440.00000000000006" topologyKind="NODE_BREAKER">
            <iidm:nodeBreakerTopology>
                <iidm:busbarSection id="VL_relation_13260100-400_BBS1" name="Busbar 1" node="0"/>
                <iidm:switch id="VL_relation_13260100-400_D_G_relation_13260100-400" name="D G_relation_13260100-400" kind="DISCONNECTOR" retained="false" open="false" node1="0" node2="2"/>
                <iidm:switch id="VL_relation_13260100-400_BK_G_relation_13260100-400" name="BK G_relation_13260100-400" kind="BREAKER" retained="false" open="false" node1="2" node2="3"/>
                <iidm:switch id="VL_relation_13260100-400_D_L_relation_13260100-400" name="D L_relation_13260100-400" kind="DISCONNECTOR" retained="false" open="false" node1="0" node2="4"/>
                <iidm:switch id="VL_relation_13260100-400_BK_L_relation_13260100-400" name="BK L_relation_13260100-400" kind="BREAKER" retained="false" open="false" node1="4" node2="5"/>
                <iidm:switch id="VL_relation_13260100-400_D_relation_6553337-400_s1" name="D relation_6553337-400_s1" kind="DISCONNECTOR" retained="false" open="false" node1="0" node2="6"/>
                <iidm:switch id="VL_relation_13260100-400_BK_relation_6553337-400_s1" name="BK relation_6553337-400_s1" kind="BREAKER" retained="false" open="false" node1="6" node2="7"/>
                <iidm:switch id="VL_relation_13260100-400_D_relation_6553338-400_s1" name="D relation_6553338-400_s1" kind="DISCONNECTOR" retained="false" open="false" node1="0" node2="8"/>
                <iidm:switch id="VL_relation_13260100-400_BK_relation_6553338-400_s1" name="BK relation_6553338-400_s1" kind="BREAKER" retained="false" open="false" node1="8" node2="9"/>
                <iidm:bus v="400.0" angle="-8.36968707582839" nodes="0,2,3,4,5,6,7,8,9"/>
            </iidm:nodeBreakerTopology>
            <iidm:generator id="G_relation_13260100-400" energySource="OTHER" minP="0.0" maxP="100000.0" voltageRegulatorOn="true" targetP="18.08871887041414" targetV="400.0" targetQ="0.0" node="3" p="-18.08871887041414" q="31.484949487139286">
                <iidm:minMaxReactiveLimits minQ="-1.7976931348623157E308" maxQ="1.7976931348623157E308"/>
            </iidm:generator>
            <iidm:load id="L_relation_13260100-400" loadType="UNDEFINED" p0="38.14676867775152" q0="3.8146768677751517" node="5" p="38.14676867775152" q="3.8146768677751517"/>
        </iidm:voltageLevel>
    </iidm:substation>
    <iidm:substation id="SS_virtual_relation_19874522_0-400" name="SS_virtual_relation_19874522_0-400" country="FR">
        <iidm:voltageLevel id="VL_virtual_relation_19874522_0-400" nominalV="400.0" lowVoltageLimit="360.0" highVoltageLimit="440.00000000000006" topologyKind="NODE_BREAKER">
            <iidm:nodeBreakerTopology>
                <iidm:busbarSection id="VL_virtual_relation_19874522_0-400_BBS1" name="Busbar 1" node="0"/>
                <iidm:switch id="VL_virtual_relation_19874522_0-400_D_G_virtual_relation_19874522_0-400" name="D G_virtual_relation_198745" kind="DISCONNECTOR" retained="false" open="false" node1="0" node2="2"/>
                <iidm:switch id="VL_virtual_relation_19874522_0-400_BK_G_virtual_relation_19874522_0-400" name="BK G_virtual_relation_19874" kind="BREAKER" retained="false" open="false" node1="2" node2="3"/>
                <iidm:switch id="VL_virtual_relation_19874522_0-400_D_L_virtual_relation_19874522_0-400" name="D L_virtual_relation_198745" kind="DISCONNECTOR" retained="false" open="false" node1="0" node2="4"/>
                <iidm:switch id="VL_virtual_relation_19874522_0-400_BK_L_virtual_relation_19874522_0-400" name="BK L_virtual_relation_19874" kind="BREAKER" retained="false" open="false" node1="4" node2="5"/>
                <iidm:switch id="VL_virtual_relation_19874522_0-400_D_relation_19874522-400_s1" name="D relation_19874522-400_s1" kind="DISCONNECTOR" retained="false" open="false" node1="0" node2="6"/>
                <iidm:switch id="VL_virtual_relation_19874522_0-400_BK_relation_19874522-400_s1" name="BK relation_19874522-400_s1" kind="BREAKER" retained="false" open="false" node1="6" node2="7"/>
                <iidm:bus v="400.0" angle="-8.393927974161693" nodes="0,2,3,4,5,6,7"/>
            </iidm:nodeBreakerTopology>
            <iidm:generator id="G_virtual_relation_19874522_0-400" energySource="OTHER" minP="0.0" maxP="1000.0" voltageRegulatorOn="true" targetP="16.299165566666645" targetV="400.0" targetQ="0.0" node="3" p="-0.0" q="-7.840113246117316">
                <iidm:minMaxReactiveLimits minQ="-1.7976931348623157E308" maxQ="1.7976931348623157E308"/>
            </iidm:generator>
            <iidm:load id="L_virtual_relation_19874522_0-400" loadType="UNDEFINED" p0="39.22050066000001" q0="3.9220500660000015" node="5" p="39.22050066000001" q="3.9220500660000015"/>
        </iidm:voltageLevel>
    </iidm:substation>
    <iidm:substation id="SS_virtual_relation_3717716_a_1-400" name="SS_virtual_relation_3717716_a_1-400" country="FR">
        <iidm:voltageLevel id="VL_virtual_relation_3717716_a_1-400" nominalV="400.0" lowVoltageLimit="360.0" highVoltageLimit="440.00000000000006" topologyKind="NODE_BREAKER">
            <iidm:nodeBreakerTopology>
                <iidm:busbarSection id="VL_virtual_relation_3717716_a_1-400_BBS1" name="Busbar 1" node="0"/>
                <iidm:switch id="VL_virtual_relation_3717716_a_1-400_D_G_virtual_relation_3717716_a_1-400" name="D G_virtual_relation_371771" kind="DISCONNECTOR" retained="false" open="false" node1="0" node2="2"/>
                <iidm:switch id="VL_virtual_relation_3717716_a_1-400_BK_G_virtual_relation_3717716_a_1-400" name="BK G_virtual_relation_37177" kind="BREAKER" retained="false" open="false" node1="2" node2="3"/>
                <iidm:switch id="VL_virtual_relation_3717716_a_1-400_D_L_virtual_relation_3717716_a_1-400" name="D L_virtual_relation_371771" kind="DISCONNECTOR" retained="false" open="false" node1="0" node2="4"/>
                <iidm:switch id="VL_virtual_relation_3717716_a_1-400_BK_L_virtual_relation_3717716_a_1-400" name="BK L_virtual_relation_37177" kind="BREAKER" retained="false" open="false" node1="4" node2="5"/>
                <iidm:switch id="VL_virtual_relation_3717716_a_1-400_D_relation_3717716_a-400_s2" name="D relation_3717716_a-400_s2" kind="DISCONNECTOR" retained="false" open="false" node1="0" node2="6"/>
                <iidm:switch id="VL_virtual_relation_3717716_a_1-400_BK_relation_3717716_a-400_s2" name="BK relation_3717716_a-400_s2" kind="BREAKER" retained="false" open="false" node1="6" node2="7"/>
                <iidm:switch id="VL_virtual_relation_3717716_a_1-400_D_way_60279702-400_s2" name="D way_60279702-400_s2" kind="DISCONNECTOR" retained="false" open="false" node1="0" node2="8"/>
                <iidm:switch id="VL_virtual_relation_3717716_a_1-400_BK_way_60279702-400_s2" name="BK way_60279702-400_s2" kind="BREAKER" retained="false" open="false" node1="8" node2="9"/>
                <iidm:bus v="400.0" angle="-2.8053485968186855" nodes="0,2,3,4,5,6,7,8,9"/>
            </iidm:nodeBreakerTopology>
            <iidm:generator id="G_virtual_relation_3717716_a_1-400" energySource="OTHER" minP="0.0" maxP="1000.0" voltageRegulatorOn="true" targetP="60.448648319268095" targetV="400.0" targetQ="0.0" node="3" p="-39.96610927648402" q="4.729560737696597">
                <iidm:minMaxReactiveLimits minQ="-1.7976931348623157E308" maxQ="1.7976931348623157E308"/>
            </iidm:generator>
            <iidm:load id="L_virtual_relation_3717716_a_1-400" loadType="UNDEFINED" p0="12.730811008439144" q0="1.2730811008439145" node="5" p="12.730811008439144" q="1.2730811008439145"/>
        </iidm:voltageLevel>
    </iidm:substation>
    <iidm:substation id="SS_virtual_relation_5952075_b_1-400" name="SS_virtual_relation_5952075_b_1-400" country="FR">
        <iidm:voltageLevel id="VL_virtual_relation_5952075_b_1-400" nominalV="400.0" lowVoltageLimit="360.0" highVoltageLimit="440.00000000000006" topologyKind="NODE_BREAKER">
            <iidm:nodeBreakerTopology>
                <iidm:busbarSection id="VL_virtual_relation_5952075_b_1-400_BBS1" name="Busbar 1" node="0"/>
                <iidm:busbarSection id="VL_virtual_relation_5952075_b_1-400_BBS2" name="Busbar 2" node="1"/>
                <iidm:switch id="VL_virtual_relation_5952075_b_1-400_D_G_virtual_relation_5952075_b_1-400" name="D G_virtual_relation_595207" kind="DISCONNECTOR" retained="false" open="false" node1="0" node2="2"/>
                <iidm:switch id="VL_virtual_relation_5952075_b_1-400_BK_G_virtual_relation_5952075_b_1-400" name="BK G_virtual_relation_59520" kind="BREAKER" retained="false" open="false" node1="2" node2="3"/>
                <iidm:switch id="VL_virtual_relation_5952075_b_1-400_D_L_virtual_relation_5952075_b_1-400" name="D L_virtual_relation_595207" kind="DISCONNECTOR" retained="false" open="false" node1="0" node2="4"/>
                <iidm:switch id="VL_virtual_relation_5952075_b_1-400_BK_L_virtual_relation_5952075_b_1-400" name="BK L_virtual_relation_59520" kind="BREAKER" retained="false" open="false" node1="4" node2="5"/>
                <iidm:switch id="VL_virtual_relation_5952075_b_1-400_D_relation_5952075_b-400_s2" name="D relation_5952075_b-400_s2" kind="DISCONNECTOR" retained="false" open="false" node1="0" node2="6"/>
                <iidm:switch id="VL_virtual_relation_5952075_b_1-400_BK_relation_5952075_b-400_s2" name="BK relation_5952075_b-400_s2" kind="BREAKER" retained="false" open="false" node1="6" node2="7"/>
                <iidm:switch id="VL_virtual_relation_5952075_b_1-400_D_relation_5952075_c-400_s1" name="D relation_5952075_c-400_s1" kind="DISCONNECTOR" retained="false" open="true" node1="0" node2="8"/>
                <iidm:switch id="VL_virtual_relation_5952075_b_1-400_BK_relation_5952075_c-400_s1" name="BK relation_5952075_c-400_s1" kind="BREAKER" retained="false" open="false" node1="8" node2="9"/>
                <iidm:switch id="VL_virtual_relation_5952075_b_1-400_D_relation_7797162_c-400_s2" name="D relation_7797162_c-400_s2" kind="DISCONNECTOR" retained="false" open="false" node1="0" node2="10"/>
                <iidm:switch id="VL_virtual_relation_5952075_b_1-400_BK_relation_7797162_c-400_s2" name="BK relation_7797162_c-400_s2" kind="BREAKER" retained="false" open="false" node1="10" node2="11"/>
                <iidm:switch id="VL_virtual_relation_5952075_b_1-400_D_relation_7797162_d-400_s1" name="D relation_7797162_d-400_s1" kind="DISCONNECTOR" retained="false" open="true" node1="0" node2="12"/>
                <iidm:switch id="VL_virtual_relation_5952075_b_1-400_BK_relation_7797162_d-400_s1" name="BK relation_7797162_d-400_s1" kind="BREAKER" retained="false" open="false" node1="12" node2="13"/>
                <iidm:switch id="VL_virtual_relation_5952075_b_1-400_COUPL_D1" name="Coupler D1" kind="DISCONNECTOR" retained="false" open="false" node1="0" node2="14"/>
                <iidm:switch id="VL_virtual_relation_5952075_b_1-400_COUPL" name="Coupler BK" kind="BREAKER" retained="false" open="false" node1="14" node2="15"/>
                <iidm:switch id="VL_virtual_relation_5952075_b_1-400_COUPL_D2" name="Coupler D2" kind="DISCONNECTOR" retained="false" open="false" node1="15" node2="1"/>
                <iidm:switch id="VL_virtual_relation_5952075_b_1-400_D2_relation_5952075_b-400_s2" name="SA.2" kind="DISCONNECTOR" retained="false" open="true" node1="1" node2="6"/>
                <iidm:switch id="VL_virtual_relation_5952075_b_1-400_D2_relation_5952075_c-400_s1" name="SA.2" kind="DISCONNECTOR" retained="false" open="false" node1="1" node2="8"/>
                <iidm:switch id="VL_virtual_relation_5952075_b_1-400_D2_relation_7797162_c-400_s2" name="SA.2" kind="DISCONNECTOR" retained="false" open="true" node1="1" node2="10"/>
                <iidm:switch id="VL_virtual_relation_5952075_b_1-400_D2_relation_7797162_d-400_s1" name="SA.2" kind="DISCONNECTOR" retained="false" open="false" node1="1" node2="12"/>
                <iidm:switch id="VL_virtual_relation_5952075_b_1-400_D2_G_virtual_relation_5952075_b_1-400" name="SA.2" kind="DISCONNECTOR" retained="false" open="true" node1="1" node2="2"/>
                <iidm:switch id="VL_virtual_relation_5952075_b_1-400_D2_L_virtual_relation_5952075_b_1-400" name="SA.2" kind="DISCONNECTOR" retained="false" open="true" node1="1" node2="4"/>
                <iidm:bus v="400.0" angle="4.299265239720112" nodes="0,1,2,3,4,5,6,7,8,9,10,11,12,13,14,15"/>
            </iidm:nodeBreakerTopology>
            <iidm:generator id="G_virtual_relation_5952075_b_1-400" energySource="OTHER" minP="0.0" maxP="1000.0" voltageRegulatorOn="true" targetP="77.2251769608468" targetV="400.0" targetQ="0.0" node="3" p="-56.74263791806272" q="36.536574741218516">
                <iidm:minMaxReactiveLimits minQ="-1.7976931348623157E308" maxQ="1.7976931348623157E308"/>
            </iidm:generator>
            <iidm:load id="L_virtual_relation_5952075_b_1-400" loadType="UNDEFINED" p0="2.6648938234919264" q0="0.26648938234919267" node="5" p="2.6648938234919264" q="0.26648938234919267"/>
        </iidm:voltageLevel>
    </iidm:substation>
    <iidm:substation id="SS_virtual_relation_6492540_a_1-400" name="SS_virtual_relation_6492540_a_1-400" country="FR">
        <iidm:voltageLevel id="VL_virtual_relation_6492540_a_1-400" nominalV="400.0" lowVoltageLimit="360.0" highVoltageLimit="440.00000000000006" topologyKind="NODE_BREAKER">
            <iidm:nodeBreakerTopology>
                <iidm:busbarSection id="VL_virtual_relation_6492540_a_1-400_BBS1" name="Busbar 1" node="0"/>
                <iidm:busbarSection id="VL_virtual_relation_6492540_a_1-400_BBS2" name="Busbar 2" node="1"/>
                <iidm:switch id="VL_virtual_relation_6492540_a_1-400_D_G_virtual_relation_6492540_a_1-400" name="D G_virtual_relation_649254" kind="DISCONNECTOR" retained="false" open="false" node1="0" node2="2"/>
                <iidm:switch id="VL_virtual_relation_6492540_a_1-400_BK_G_virtual_relation_6492540_a_1-400" name="BK G_virtual_relation_64925" kind="BREAKER" retained="false" open="false" node1="2" node2="3"/>
                <iidm:switch id="VL_virtual_relation_6492540_a_1-400_D_L_virtual_relation_6492540_a_1-400" name="D L_virtual_relation_649254" kind="DISCONNECTOR" retained="false" open="false" node1="0" node2="4"/>
                <iidm:switch id="VL_virtual_relation_6492540_a_1-400_BK_L_virtual_relation_6492540_a_1-400" name="BK L_virtual_relation_64925" kind="BREAKER" retained="false" open="false" node1="4" node2="5"/>
                <iidm:switch id="VL_virtual_relation_6492540_a_1-400_D_relation_6492540_a-400_s2" name="D relation_6492540_a-400_s2" kind="DISCONNECTOR" retained="false" open="false" node1="0" node2="6"/>
                <iidm:switch id="VL_virtual_relation_6492540_a_1-400_BK_relation_6492540_a-400_s2" name="BK relation_6492540_a-400_s2" kind="BREAKER" retained="false" open="false" node1="6" node2="7"/>
                <iidm:switch id="VL_virtual_relation_6492540_a_1-400_D_relation_6492540_b-400_s1" name="D relation_6492540_b-400_s1" kind="DISCONNECTOR" retained="false" open="true" node1="0" node2="8"/>
                <iidm:switch id="VL_virtual_relation_6492540_a_1-400_BK_relation_6492540_b-400_s1" name="BK relation_6492540_b-400_s1" kind="BREAKER" retained="false" open="false" node1="8" node2="9"/>
                <iidm:switch id="VL_virtual_relation_6492540_a_1-400_D_relation_6492541_a-400_s2" name="D relation_6492541_a-400_s2" kind="DISCONNECTOR" retained="false" open="false" node1="0" node2="10"/>
                <iidm:switch id="VL_virtual_relation_6492540_a_1-400_BK_relation_6492541_a-400_s2" name="BK relation_6492541_a-400_s2" kind="BREAKER" retained="false" open="false" node1="10" node2="11"/>
                <iidm:switch id="VL_virtual_relation_6492540_a_1-400_D_relation_6492541_b-400_s1" name="D relation_6492541_b-400_s1" kind="DISCONNECTOR" retained="false" open="true" node1="0" node2="12"/>
                <iidm:switch id="VL_virtual_relation_6492540_a_1-400_BK_relation_6492541_b-400_s1" name="BK relation_6492541_b-400_s1" kind="BREAKER" retained="false" open="false" node1="12" node2="13"/>
                <iidm:switch id="VL_virtual_relation_6492540_a_1-400_D_way_484322166-400_s2" name="D way_484322166-400_s2" kind="DISCONNECTOR" retained="false" open="false" node1="0" node2="14"/>
                <iidm:switch id="VL_virtual_relation_6492540_a_1-400_BK_way_484322166-400_s2" name="BK way_484322166-400_s2" kind="BREAKER" retained="false" open="false" node1="14" node2="15"/>
                <iidm:switch id="VL_virtual_relation_6492540_a_1-400_COUPL_D1" name="Coupler D1" kind="DISCONNECTOR" retained="false" open="false" node1="0" node2="16"/>
                <iidm:switch id="VL_virtual_relation_6492540_a_1-400_COUPL" name="Coupler BK" kind="BREAKER" retained="false" open="false" node1="16" node2="17"/>
                <iidm:switch id="VL_virtual_relation_6492540_a_1-400_COUPL_D2" name="Coupler D2" kind="DISCONNECTOR" retained="false" open="false" node1="17" node2="1"/>
                <iidm:switch id="VL_virtual_relation_6492540_a_1-400_D2_relation_6492540_a-400_s2" name="SA.2" kind="DISCONNECTOR" retained="false" open="true" node1="1" node2="6"/>
                <iidm:switch id="VL_virtual_relation_6492540_a_1-400_D2_relation_6492540_b-400_s1" name="SA.2" kind="DISCONNECTOR" retained="false" open="false" node1="1" node2="8"/>
                <iidm:switch id="VL_virtual_relation_6492540_a_1-400_D2_relation_6492541_a-400_s2" name="SA.2" kind="DISCONNECTOR" retained="false" open="true" node1="1" node2="10"/>
                <iidm:switch id="VL_virtual_relation_6492540_a_1-400_D2_relation_6492541_b-400_s1" name="SA.2" kind="DISCONNECTOR" retained="false" open="false" node1="1" node2="12"/>
                <iidm:switch id="VL_virtual_relation_6492540_a_1-400_D2_way_484322166-400_s2" name="SA.2" kind="DISCONNECTOR" retained="false" open="true" node1="1" node2="14"/>
                <iidm:switch id="VL_virtual_relation_6492540_a_1-400_D2_G_virtual_relation_6492540_a_1-400" name="SA.2" kind="DISCONNECTOR" retained="false" open="true" node1="1" node2="2"/>
                <iidm:switch id="VL_virtual_relation_6492540_a_1-400_D2_L_virtual_relation_6492540_a_1-400" name="SA.2" kind="DISCONNECTOR" retained="false" open="true" node1="1" node2="4"/>
                <iidm:bus v="400.0" angle="-4.420122105328326" nodes="0,1,2,3,4,5,6,7,8,9,10,11,12,13,14,15,16,17"/>
            </iidm:nodeBreakerTopology>
            <iidm:generator id="G_virtual_relation_6492540_a_1-400" energySource="OTHER" minP="0.0" maxP="1000.0" voltageRegulatorOn="true" targetP="40.46905857290015" targetV="400.0" targetQ="0.0" node="3" p="-19.986519530116077" q="1.96630424594396">
                <iidm:minMaxReactiveLimits minQ="-1.7976931348623157E308" maxQ="1.7976931348623157E308"/>
            </iidm:generator>
            <iidm:load id="L_virtual_relation_6492540_a_1-400" loadType="UNDEFINED" p0="24.71856485625991" q0="2.4718564856259913" node="5" p="24.71856485625991" q="2.4718564856259913"/>
        </iidm:voltageLevel>
    </iidm:substation>
    <iidm:substation id="SS_virtual_relation_6492540_b_1-400" name="SS_virtual_relation_6492540_b_1-400" country="FR">
        <iidm:voltageLevel id="VL_virtual_relation_6492540_b_1-400" nominalV="400.0" lowVoltageLimit="360.0" highVoltageLimit="440.00000000000006" topologyKind="NODE_BREAKER">
            <iidm:nodeBreakerTopology>
                <iidm:busbarSection id="VL_virtual_relation_6492540_b_1-400_BBS1" name="Busbar 1" node="0"/>
                <iidm:busbarSection id="VL_virtual_relation_6492540_b_1-400_BBS2" name="Busbar 2" node="1"/>
                <iidm:switch id="VL_virtual_relation_6492540_b_1-400_D_G_virtual_relation_6492540_b_1-400" name="D G_virtual_relation_649254" kind="DISCONNECTOR" retained="false" open="false" node1="0" node2="2"/>
                <iidm:switch id="VL_virtual_relation_6492540_b_1-400_BK_G_virtual_relation_6492540_b_1-400" name="BK G_virtual_relation_64925" kind="BREAKER" retained="false" open="false" node1="2" node2="3"/>
                <iidm:switch id="VL_virtual_relation_6492540_b_1-400_D_L_virtual_relation_6492540_b_1-400" name="D L_virtual_relation_649254" kind="DISCONNECTOR" retained="false" open="false" node1="0" node2="4"/>
                <iidm:switch id="VL_virtual_relation_6492540_b_1-400_BK_L_virtual_relation_6492540_b_1-400" name="BK L_virtual_relation_64925" kind="BREAKER" retained="false" open="false" node1="4" node2="5"/>
                <iidm:switch id="VL_virtual_relation_6492540_b_1-400_D_relation_6492540_b-400_s2" name="D relation_6492540_b-400_s2" kind="DISCONNECTOR" retained="false" open="false" node1="0" node2="6"/>
                <iidm:switch id="VL_virtual_relation_6492540_b_1-400_BK_relation_6492540_b-400_s2" name="BK relation_6492540_b-400_s2" kind="BREAKER" retained="false" open="false" node1="6" node2="7"/>
                <iidm:switch id="VL_virtual_relation_6492540_b_1-400_D_relation_6492540_c-400_s1" name="D relation_6492540_c-400_s1" kind="DISCONNECTOR" retained="false" open="true" node1="0" node2="8"/>
                <iidm:switch id="VL_virtual_relation_6492540_b_1-400_BK_relation_6492540_c-400_s1" name="BK relation_6492540_c-400_s1" kind="BREAKER" retained="false" open="false" node1="8" node2="9"/>
                <iidm:switch id="VL_virtual_relation_6492540_b_1-400_D_relation_6492541_b-400_s2" name="D relation_6492541_b-400_s2" kind="DISCONNECTOR" retained="false" open="false" node1="0" node2="10"/>
                <iidm:switch id="VL_virtual_relation_6492540_b_1-400_BK_relation_6492541_b-400_s2" name="BK relation_6492541_b-400_s2" kind="BREAKER" retained="false" open="false" node1="10" node2="11"/>
                <iidm:switch id="VL_virtual_relation_6492540_b_1-400_D_relation_6492541_c-400_s1" name="D relation_6492541_c-400_s1" kind="DISCONNECTOR" retained="false" open="true" node1="0" node2="12"/>
                <iidm:switch id="VL_virtual_relation_6492540_b_1-400_BK_relation_6492541_c-400_s1" name="BK relation_6492541_c-400_s1" kind="BREAKER" retained="false" open="false" node1="12" node2="13"/>
                <iidm:switch id="VL_virtual_relation_6492540_b_1-400_D_way_484322166-400_s1" name="D way_484322166-400_s1" kind="DISCONNECTOR" retained="false" open="false" node1="0" node2="14"/>
                <iidm:switch id="VL_virtual_relation_6492540_b_1-400_BK_way_484322166-400_s1" name="BK way_484322166-400_s1" kind="BREAKER" retained="false" open="false" node1="14" node2="15"/>
                <iidm:switch id="VL_virtual_relation_6492540_b_1-400_COUPL_D1" name="Coupler D1" kind="DISCONNECTOR" retained="false" open="false" node1="0" node2="16"/>
                <iidm:switch id="VL_virtual_relation_6492540_b_1-400_COUPL" name="Coupler BK" kind="BREAKER" retained="false" open="false" node1="16" node2="17"/>
                <iidm:switch id="VL_virtual_relation_6492540_b_1-400_COUPL_D2" name="Coupler D2" kind="DISCONNECTOR" retained="false" open="false" node1="17" node2="1"/>
                <iidm:switch id="VL_virtual_relation_6492540_b_1-400_D2_relation_6492540_b-400_s2" name="SA.2" kind="DISCONNECTOR" retained="false" open="true" node1="1" node2="6"/>
                <iidm:switch id="VL_virtual_relation_6492540_b_1-400_D2_relation_6492540_c-400_s1" name="SA.2" kind="DISCONNECTOR" retained="false" open="false" node1="1" node2="8"/>
                <iidm:switch id="VL_virtual_relation_6492540_b_1-400_D2_relation_6492541_b-400_s2" name="SA.2" kind="DISCONNECTOR" retained="false" open="true" node1="1" node2="10"/>
                <iidm:switch id="VL_virtual_relation_6492540_b_1-400_D2_relation_6492541_c-400_s1" name="SA.2" kind="DISCONNECTOR" retained="false" open="false" node1="1" node2="12"/>
                <iidm:switch id="VL_virtual_relation_6492540_b_1-400_D2_way_484322166-400_s1" name="SA.2" kind="DISCONNECTOR" retained="false" open="true" node1="1" node2="14"/>
                <iidm:switch id="VL_virtual_relation_6492540_b_1-400_D2_G_virtual_relation_6492540_b_1-400" name="SA.2" kind="DISCONNECTOR" retained="false" open="true" node1="1" node2="2"/>
                <iidm:switch id="VL_virtual_relation_6492540_b_1-400_D2_L_virtual_relation_6492540_b_1-400" name="SA.2" kind="DISCONNECTOR" retained="false" open="true" node1="1" node2="4"/>
                <iidm:bus v="400.0" angle="-4.415540093956034" nodes="0,1,2,3,4,5,6,7,8,9,10,11,12,13,14,15,16,17"/>
            </iidm:nodeBreakerTopology>
            <iidm:generator id="G_virtual_relation_6492540_b_1-400" energySource="OTHER" minP="0.0" maxP="1000.0" voltageRegulatorOn="true" targetP="40.55830987792095" targetV="400.0" targetQ="0.0" node="3" p="-20.075770835136876" q="17.750413271504566">
                <iidm:minMaxReactiveLimits minQ="-1.7976931348623157E308" maxQ="1.7976931348623157E308"/>
            </iidm:generator>
            <iidm:load id="L_virtual_relation_6492540_b_1-400" loadType="UNDEFINED" p0="24.66501407324743" q0="2.4665014073247433" node="5" p="24.66501407324743" q="2.4665014073247433"/>
        </iidm:voltageLevel>
    </iidm:substation>
    <iidm:substation id="SS_virtual_way_1346026649_1-400" name="SS_virtual_way_1346026649_1-400" country="FR">
        <iidm:voltageLevel id="VL_virtual_way_1346026649_1-400" nominalV="400.0" lowVoltageLimit="360.0" highVoltageLimit="440.00000000000006" topologyKind="NODE_BREAKER">
            <iidm:nodeBreakerTopology>
                <iidm:busbarSection id="VL_virtual_way_1346026649_1-400_BBS1" name="Busbar 1" node="0"/>
                <iidm:switch id="VL_virtual_way_1346026649_1-400_D_G_virtual_way_1346026649_1-400" name="D G_virtual_way_1346026649_" kind="DISCONNECTOR" retained="false" open="false" node1="0" node2="2"/>
                <iidm:switch id="VL_virtual_way_1346026649_1-400_BK_G_virtual_way_1346026649_1-400" name="BK G_virtual_way_1346026649" kind="BREAKER" retained="false" open="false" node1="2" node2="3"/>
                <iidm:switch id="VL_virtual_way_1346026649_1-400_D_L_virtual_way_1346026649_1-400" name="D L_virtual_way_1346026649_" kind="DISCONNECTOR" retained="false" open="false" node1="0" node2="4"/>
                <iidm:switch id="VL_virtual_way_1346026649_1-400_BK_L_virtual_way_1346026649_1-400" name="BK L_virtual_way_1346026649" kind="BREAKER" retained="false" open="false" node1="4" node2="5"/>
                <iidm:switch id="VL_virtual_way_1346026649_1-400_D_way_1346026649-400_s2" name="D way_1346026649-400_s2" kind="DISCONNECTOR" retained="false" open="false" node1="0" node2="6"/>
                <iidm:switch id="VL_virtual_way_1346026649_1-400_BK_way_1346026649-400_s2" name="BK way_1346026649-400_s2" kind="BREAKER" retained="false" open="false" node1="6" node2="7"/>
                <iidm:bus v="400.0" angle="-7.9660910522246775" nodes="0,2,3,4,5,6,7"/>
            </iidm:nodeBreakerTopology>
            <iidm:generator id="G_virtual_way_1346026649_1-400" energySource="OTHER" minP="0.0" maxP="1000.0" voltageRegulatorOn="true" targetP="32.559504379527446" targetV="400.0" targetQ="0.0" node="3" p="-12.076965336743372" q="-2.7261411717586803">
                <iidm:minMaxReactiveLimits minQ="-1.7976931348623157E308" maxQ="1.7976931348623157E308"/>
            </iidm:generator>
            <iidm:load id="L_virtual_way_1346026649_1-400" loadType="UNDEFINED" p0="29.464297372283532" q0="2.946429737228353" node="5" p="29.464297372283532" q="2.946429737228353"/>
        </iidm:voltageLevel>
    </iidm:substation>
    <iidm:substation id="SS_virtual_way_1347440288_1-400" name="SS_virtual_way_1347440288_1-400" country="FR">
        <iidm:voltageLevel id="VL_virtual_way_1347440288_1-400" nominalV="400.0" lowVoltageLimit="360.0" highVoltageLimit="440.00000000000006" topologyKind="NODE_BREAKER">
            <iidm:nodeBreakerTopology>
                <iidm:busbarSection id="VL_virtual_way_1347440288_1-400_BBS1" name="Busbar 1" node="0"/>
                <iidm:switch id="VL_virtual_way_1347440288_1-400_D_G_virtual_way_1347440288_1-400" name="D G_virtual_way_1347440288_" kind="DISCONNECTOR" retained="false" open="false" node1="0" node2="2"/>
                <iidm:switch id="VL_virtual_way_1347440288_1-400_BK_G_virtual_way_1347440288_1-400" name="BK G_virtual_way_1347440288" kind="BREAKER" retained="false" open="false" node1="2" node2="3"/>
                <iidm:switch id="VL_virtual_way_1347440288_1-400_D_L_virtual_way_1347440288_1-400" name="D L_virtual_way_1347440288_" kind="DISCONNECTOR" retained="false" open="false" node1="0" node2="4"/>
                <iidm:switch id="VL_virtual_way_1347440288_1-400_BK_L_virtual_way_1347440288_1-400" name="BK L_virtual_way_1347440288" kind="BREAKER" retained="false" open="false" node1="4" node2="5"/>
                <iidm:switch id="VL_virtual_way_1347440288_1-400_D_merged_way_118387074-400_3_s2" name="D merged_way_118387074-40_s2" kind="DISCONNECTOR" retained="false" open="false" node1="0" node2="6"/>
                <iidm:switch id="VL_virtual_way_1347440288_1-400_BK_merged_way_118387074-400_3_s2" name="BK merged_way_118387074-4_s2" kind="BREAKER" retained="false" open="false" node1="6" node2="7"/>
                <iidm:bus v="400.0" angle="-5.761923470091501" nodes="0,2,3,4,5,6,7"/>
            </iidm:nodeBreakerTopology>
            <iidm:generator id="G_virtual_way_1347440288_1-400" energySource="OTHER" minP="0.0" maxP="1000.0" voltageRegulatorOn="true" targetP="38.53094810724101" targetV="400.0" targetQ="0.0" node="3" p="-18.048409064456933" q="-0.20225919740932236">
                <iidm:minMaxReactiveLimits minQ="-1.7976931348623157E308" maxQ="1.7976931348623157E308"/>
            </iidm:generator>
            <iidm:load id="L_virtual_way_1347440288_1-400" loadType="UNDEFINED" p0="25.881431135655397" q0="2.5881431135655397" node="5" p="25.881431135655397" q="2.5881431135655397"/>
        </iidm:voltageLevel>
    </iidm:substation>
    <iidm:substation id="SS_virtual_way_1430729489_1-400" name="SS_virtual_way_1430729489_1-400" country="FR">
        <iidm:voltageLevel id="VL_virtual_way_1430729489_1-400" nominalV="400.0" lowVoltageLimit="360.0" highVoltageLimit="440.00000000000006" topologyKind="NODE_BREAKER">
            <iidm:nodeBreakerTopology>
                <iidm:busbarSection id="VL_virtual_way_1430729489_1-400_BBS1" name="Busbar 1" node="0"/>
                <iidm:switch id="VL_virtual_way_1430729489_1-400_D_G_virtual_way_1430729489_1-400" name="D G_virtual_way_1430729489_" kind="DISCONNECTOR" retained="false" open="false" node1="0" node2="2"/>
                <iidm:switch id="VL_virtual_way_1430729489_1-400_BK_G_virtual_way_1430729489_1-400" name="BK G_virtual_way_1430729489" kind="BREAKER" retained="false" open="false" node1="2" node2="3"/>
                <iidm:switch id="VL_virtual_way_1430729489_1-400_D_L_virtual_way_1430729489_1-400" name="D L_virtual_way_1430729489_" kind="DISCONNECTOR" retained="false" open="false" node1="0" node2="4"/>
                <iidm:switch id="VL_virtual_way_1430729489_1-400_BK_L_virtual_way_1430729489_1-400" name="BK L_virtual_way_1430729489" kind="BREAKER" retained="false" open="false" node1="4" node2="5"/>
                <iidm:switch id="VL_virtual_way_1430729489_1-400_D_way_1430729490-400_s1" name="D way_1430729490-400_s1" kind="DISCONNECTOR" retained="false" open="false" node1="0" node2="6"/>
                <iidm:switch id="VL_virtual_way_1430729489_1-400_BK_way_1430729490-400_s1" name="BK way_1430729490-400_s1" kind="BREAKER" retained="false" open="false" node1="6" node2="7"/>
                <iidm:switch id="VL_virtual_way_1430729489_1-400_D_way_53826238-400_s2" name="D way_53826238-400_s2" kind="DISCONNECTOR" retained="false" open="false" node1="0" node2="8"/>
                <iidm:switch id="VL_virtual_way_1430729489_1-400_BK_way_53826238-400_s2" name="BK way_53826238-400_s2" kind="BREAKER" retained="false" open="false" node1="8" node2="9"/>
                <iidm:bus v="400.0" angle="-8.324314824738673" nodes="0,2,3,4,5,6,7,8,9"/>
            </iidm:nodeBreakerTopology>
            <iidm:generator id="G_virtual_way_1430729489_1-400" energySource="OTHER" minP="0.0" maxP="1000.0" voltageRegulatorOn="true" targetP="17.56416183965768" targetV="400.0" targetQ="0.0" node="3" p="-0.0" q="0.2626114214655778">
                <iidm:minMaxReactiveLimits minQ="-1.7976931348623157E308" maxQ="1.7976931348623157E308"/>
            </iidm:generator>
            <iidm:load id="L_virtual_way_1430729489_1-400" loadType="UNDEFINED" p0="38.461502896205396" q0="3.8461502896205397" node="5" p="38.461502896205396" q="3.8461502896205397"/>
        </iidm:voltageLevel>
    </iidm:substation>
    <iidm:substation id="SS_virtual_way_175128983_0-400" name="SS_virtual_way_175128983_0-400" country="FR">
        <iidm:voltageLevel id="VL_virtual_way_175128983_0-400" nominalV="400.0" lowVoltageLimit="360.0" highVoltageLimit="440.00000000000006" topologyKind="NODE_BREAKER">
            <iidm:nodeBreakerTopology>
                <iidm:busbarSection id="VL_virtual_way_175128983_0-400_BBS1" name="Busbar 1" node="0"/>
                <iidm:switch id="VL_virtual_way_175128983_0-400_D_G_virtual_way_175128983_0-400" name="D G_virtual_way_175128983_0" kind="DISCONNECTOR" retained="false" open="false" node1="0" node2="2"/>
                <iidm:switch id="VL_virtual_way_175128983_0-400_BK_G_virtual_way_175128983_0-400" name="BK G_virtual_way_175128983_" kind="BREAKER" retained="false" open="false" node1="2" node2="3"/>
                <iidm:switch id="VL_virtual_way_175128983_0-400_D_L_virtual_way_175128983_0-400" name="D L_virtual_way_175128983_0" kind="DISCONNECTOR" retained="false" open="false" node1="0" node2="4"/>
                <iidm:switch id="VL_virtual_way_175128983_0-400_BK_L_virtual_way_175128983_0-400" name="BK L_virtual_way_175128983_" kind="BREAKER" retained="false" open="false" node1="4" node2="5"/>
                <iidm:switch id="VL_virtual_way_175128983_0-400_D_way_175128983-400_s1" name="D way_175128983-400_s1" kind="DISCONNECTOR" retained="false" open="false" node1="0" node2="6"/>
                <iidm:switch id="VL_virtual_way_175128983_0-400_BK_way_175128983-400_s1" name="BK way_175128983-400_s1" kind="BREAKER" retained="false" open="false" node1="6" node2="7"/>
                <iidm:bus v="400.0" angle="-6.8873591543216754" nodes="0,2,3,4,5,6,7"/>
            </iidm:nodeBreakerTopology>
            <iidm:generator id="G_virtual_way_175128983_0-400" energySource="OTHER" minP="0.0" maxP="1000.0" voltageRegulatorOn="true" targetP="34.854292271609346" targetV="400.0" targetQ="0.0" node="3" p="-14.371753228825268" q="-2.868474355859818">
                <iidm:minMaxReactiveLimits minQ="-1.7976931348623157E308" maxQ="1.7976931348623157E308"/>
            </iidm:generator>
            <iidm:load id="L_virtual_way_175128983_0-400" loadType="UNDEFINED" p0="28.087424637034395" q0="2.8087424637034397" node="5" p="28.087424637034395" q="2.8087424637034397"/>
        </iidm:voltageLevel>
    </iidm:substation>
    <iidm:substation id="SS_virtual_way_23286260_1-400" name="SS_virtual_way_23286260_1-400" country="FR">
        <iidm:voltageLevel id="VL_virtual_way_23286260_1-400" nominalV="400.0" lowVoltageLimit="360.0" highVoltageLimit="440.00000000000006" topologyKind="NODE_BREAKER">
            <iidm:nodeBreakerTopology>
                <iidm:busbarSection id="VL_virtual_way_23286260_1-400_BBS1" name="Busbar 1" node="0"/>
                <iidm:switch id="VL_virtual_way_23286260_1-400_D_G_virtual_way_23286260_1-400" name="D G_virtual_way_23286260_1-" kind="DISCONNECTOR" retained="false" open="false" node1="0" node2="2"/>
                <iidm:switch id="VL_virtual_way_23286260_1-400_BK_G_virtual_way_23286260_1-400" name="BK G_virtual_way_23286260_1" kind="BREAKER" retained="false" open="false" node1="2" node2="3"/>
                <iidm:switch id="VL_virtual_way_23286260_1-400_D_L_virtual_way_23286260_1-400" name="D L_virtual_way_23286260_1-" kind="DISCONNECTOR" retained="false" open="false" node1="0" node2="4"/>
                <iidm:switch id="VL_virtual_way_23286260_1-400_BK_L_virtual_way_23286260_1-400" name="BK L_virtual_way_23286260_1" kind="BREAKER" retained="false" open="false" node1="4" node2="5"/>
                <iidm:switch id="VL_virtual_way_23286260_1-400_D_way_23286260-400_s2" name="D way_23286260-400_s2" kind="DISCONNECTOR" retained="false" open="false" node1="0" node2="6"/>
                <iidm:switch id="VL_virtual_way_23286260_1-400_BK_way_23286260-400_s2" name="BK way_23286260-400_s2" kind="BREAKER" retained="false" open="false" node1="6" node2="7"/>
                <iidm:switch id="VL_virtual_way_23286260_1-400_D_way_86344192-400_s2" name="D way_86344192-400_s2" kind="DISCONNECTOR" retained="false" open="false" node1="0" node2="8"/>
                <iidm:switch id="VL_virtual_way_23286260_1-400_BK_way_86344192-400_s2" name="BK way_86344192-400_s2" kind="BREAKER" retained="false" open="false" node1="8" node2="9"/>
                <iidm:switch id="VL_virtual_way_23286260_1-400_D_way_86345555-400_s1" name="D way_86345555-400_s1" kind="DISCONNECTOR" retained="false" open="false" node1="0" node2="10"/>
                <iidm:switch id="VL_virtual_way_23286260_1-400_BK_way_86345555-400_s1" name="BK way_86345555-400_s1" kind="BREAKER" retained="false" open="false" node1="10" node2="11"/>
                <iidm:bus v="400.0" angle="-5.609609854661108" nodes="0,2,3,4,5,6,7,8,9,10,11"/>
            </iidm:nodeBreakerTopology>
            <iidm:generator id="G_virtual_way_23286260_1-400" energySource="OTHER" minP="0.0" maxP="1000.0" voltageRegulatorOn="true" targetP="39.604112492956716" targetV="400.0" targetQ="0.0" node="3" p="-19.12157345017264" q="44.61120625004418">
                <iidm:minMaxReactiveLimits minQ="-1.7976931348623157E308" maxQ="1.7976931348623157E308"/>
            </iidm:generator>
            <iidm:load id="L_virtual_way_23286260_1-400" loadType="UNDEFINED" p0="25.23753250422597" q0="2.5237532504225975" node="5" p="25.23753250422597" q="2.5237532504225975"/>
        </iidm:voltageLevel>
    </iidm:substation>
    <iidm:substation id="SS_virtual_way_328017422_1-400" name="SS_virtual_way_328017422_1-400" country="FR">
        <iidm:voltageLevel id="VL_virtual_way_328017422_1-400" nominalV="400.0" lowVoltageLimit="360.0" highVoltageLimit="440.00000000000006" topologyKind="NODE_BREAKER">
            <iidm:nodeBreakerTopology>
                <iidm:busbarSection id="VL_virtual_way_328017422_1-400_BBS1" name="Busbar 1" node="0"/>
                <iidm:busbarSection id="VL_virtual_way_328017422_1-400_BBS2" name="Busbar 2" node="1"/>
                <iidm:switch id="VL_virtual_way_328017422_1-400_D_G_virtual_way_328017422_1-400" name="D G_virtual_way_328017422_1" kind="DISCONNECTOR" retained="false" open="false" node1="0" node2="2"/>
                <iidm:switch id="VL_virtual_way_328017422_1-400_BK_G_virtual_way_328017422_1-400" name="BK G_virtual_way_328017422_" kind="BREAKER" retained="false" open="false" node1="2" node2="3"/>
                <iidm:switch id="VL_virtual_way_328017422_1-400_D_L_virtual_way_328017422_1-400" name="D L_virtual_way_328017422_1" kind="DISCONNECTOR" retained="false" open="false" node1="0" node2="4"/>
                <iidm:switch id="VL_virtual_way_328017422_1-400_BK_L_virtual_way_328017422_1-400" name="BK L_virtual_way_328017422_" kind="BREAKER" retained="false" open="false" node1="4" node2="5"/>
                <iidm:switch id="VL_virtual_way_328017422_1-400_D_merged_way_328017422-400_1_s2" name="D merged_way_328017422-40_s2" kind="DISCONNECTOR" retained="false" open="false" node1="0" node2="6"/>
                <iidm:switch id="VL_virtual_way_328017422_1-400_BK_merged_way_328017422-400_1_s2" name="BK merged_way_328017422-4_s2" kind="BREAKER" retained="false" open="false" node1="6" node2="7"/>
                <iidm:switch id="VL_virtual_way_328017422_1-400_D_merged_way_328017432_b-400_2_s2" name="D merged_way_328017432_b-_s2" kind="DISCONNECTOR" retained="false" open="true" node1="0" node2="8"/>
                <iidm:switch id="VL_virtual_way_328017422_1-400_BK_merged_way_328017432_b-400_2_s2" name="BK merged_way_328017432_b_s2" kind="BREAKER" retained="false" open="false" node1="8" node2="9"/>
                <iidm:switch id="VL_virtual_way_328017422_1-400_D_way_148245069-400_s2" name="D way_148245069-400_s2" kind="DISCONNECTOR" retained="false" open="false" node1="0" node2="10"/>
                <iidm:switch id="VL_virtual_way_328017422_1-400_BK_way_148245069-400_s2" name="BK way_148245069-400_s2" kind="BREAKER" retained="false" open="false" node1="10" node2="11"/>
                <iidm:switch id="VL_virtual_way_328017422_1-400_D_way_170028642-400_s1" name="D way_170028642-400_s1" kind="DISCONNECTOR" retained="false" open="true" node1="0" node2="12"/>
                <iidm:switch id="VL_virtual_way_328017422_1-400_BK_way_170028642-400_s1" name="BK way_170028642-400_s1" kind="BREAKER" retained="false" open="false" node1="12" node2="13"/>
                <iidm:switch id="VL_virtual_way_328017422_1-400_COUPL_D1" name="Coupler D1" kind="DISCONNECTOR" retained="false" open="false" node1="0" node2="14"/>
                <iidm:switch id="VL_virtual_way_328017422_1-400_COUPL" name="Coupler BK" kind="BREAKER" retained="false" open="false" node1="14" node2="15"/>
                <iidm:switch id="VL_virtual_way_328017422_1-400_COUPL_D2" name="Coupler D2" kind="DISCONNECTOR" retained="false" open="false" node1="15" node2="1"/>
                <iidm:switch id="VL_virtual_way_328017422_1-400_D2_merged_way_328017422-400_1_s2" name="SA.2" kind="DISCONNECTOR" retained="false" open="true" node1="1" node2="6"/>
                <iidm:switch id="VL_virtual_way_328017422_1-400_D2_merged_way_328017432_b-400_2_s2" name="SA.2" kind="DISCONNECTOR" retained="false" open="false" node1="1" node2="8"/>
                <iidm:switch id="VL_virtual_way_328017422_1-400_D2_way_148245069-400_s2" name="SA.2" kind="DISCONNECTOR" retained="false" open="true" node1="1" node2="10"/>
                <iidm:switch id="VL_virtual_way_328017422_1-400_D2_way_170028642-400_s1" name="SA.2" kind="DISCONNECTOR" retained="false" open="false" node1="1" node2="12"/>
                <iidm:switch id="VL_virtual_way_328017422_1-400_D2_G_virtual_way_328017422_1-400" name="SA.2" kind="DISCONNECTOR" retained="false" open="true" node1="1" node2="2"/>
                <iidm:switch id="VL_virtual_way_328017422_1-400_D2_L_virtual_way_328017422_1-400" name="SA.2" kind="DISCONNECTOR" retained="false" open="true" node1="1" node2="4"/>
                <iidm:bus v="400.0" angle="-7.4929622886256455" nodes="0,1,2,3,4,5,6,7,8,9,10,11,12,13,14,15"/>
            </iidm:nodeBreakerTopology>
            <iidm:generator id="G_virtual_way_328017422_1-400" energySource="OTHER" minP="0.0" maxP="1000.0" voltageRegulatorOn="true" targetP="29.08375493923117" targetV="400.0" targetQ="0.0" node="3" p="-8.601215896447096" q="27.112129503980842">
                <iidm:minMaxReactiveLimits minQ="-1.7976931348623157E308" maxQ="1.7976931348623157E308"/>
            </iidm:generator>
            <iidm:load id="L_virtual_way_328017422_1-400" loadType="UNDEFINED" p0="31.549747036461298" q0="3.15497470364613" node="5" p="31.549747036461298" q="3.15497470364613"/>
        </iidm:voltageLevel>
    </iidm:substation>
    <iidm:substation id="SS_virtual_way_380651625_1-400" name="SS_virtual_way_380651625_1-400" country="FR">
        <iidm:voltageLevel id="VL_virtual_way_380651625_1-400" nominalV="400.0" lowVoltageLimit="360.0" highVoltageLimit="440.00000000000006" topologyKind="NODE_BREAKER">
            <iidm:nodeBreakerTopology>
                <iidm:busbarSection id="VL_virtual_way_380651625_1-400_BBS1" name="Busbar 1" node="0"/>
                <iidm:switch id="VL_virtual_way_380651625_1-400_D_G_virtual_way_380651625_1-400" name="D G_virtual_way_380651625_1" kind="DISCONNECTOR" retained="false" open="false" node1="0" node2="2"/>
                <iidm:switch id="VL_virtual_way_380651625_1-400_BK_G_virtual_way_380651625_1-400" name="BK G_virtual_way_380651625_" kind="BREAKER" retained="false" open="false" node1="2" node2="3"/>
                <iidm:switch id="VL_virtual_way_380651625_1-400_D_L_virtual_way_380651625_1-400" name="D L_virtual_way_380651625_1" kind="DISCONNECTOR" retained="false" open="false" node1="0" node2="4"/>
                <iidm:switch id="VL_virtual_way_380651625_1-400_BK_L_virtual_way_380651625_1-400" name="BK L_virtual_way_380651625_" kind="BREAKER" retained="false" open="false" node1="4" node2="5"/>
                <iidm:switch id="VL_virtual_way_380651625_1-400_D_merged_way_130110647-400_3_s2" name="D merged_way_130110647-40_s2" kind="DISCONNECTOR" retained="false" open="false" node1="0" node2="6"/>
                <iidm:switch id="VL_virtual_way_380651625_1-400_BK_merged_way_130110647-400_3_s2" name="BK merged_way_130110647-4_s2" kind="BREAKER" retained="false" open="false" node1="6" node2="7"/>
                <iidm:bus v="400.0" angle="-5.008044469766353" nodes="0,2,3,4,5,6,7"/>
            </iidm:nodeBreakerTopology>
            <iidm:generator id="G_virtual_way_380651625_1-400" energySource="OTHER" minP="0.0" maxP="1000.0" voltageRegulatorOn="true" targetP="51.898198589621735" targetV="400.0" targetQ="0.0" node="3" p="-31.41565954683766" q="22.184725962661787">
                <iidm:minMaxReactiveLimits minQ="-1.7976931348623157E308" maxQ="1.7976931348623157E308"/>
            </iidm:generator>
            <iidm:load id="L_virtual_way_380651625_1-400" loadType="UNDEFINED" p0="17.861080846226958" q0="1.786108084622696" node="5" p="17.861080846226958" q="1.786108084622696"/>
        </iidm:voltageLevel>
    </iidm:substation>
    <iidm:substation id="SS_virtual_way_41453026_1-400" name="SS_virtual_way_41453026_1-400" country="FR">
        <iidm:voltageLevel id="VL_virtual_way_41453026_1-400" nominalV="400.0" lowVoltageLimit="360.0" highVoltageLimit="440.00000000000006" topologyKind="NODE_BREAKER">
            <iidm:nodeBreakerTopology>
                <iidm:busbarSection id="VL_virtual_way_41453026_1-400_BBS1" name="Busbar 1" node="0"/>
                <iidm:switch id="VL_virtual_way_41453026_1-400_D_G_virtual_way_41453026_1-400" name="D G_virtual_way_41453026_1-" kind="DISCONNECTOR" retained="false" open="false" node1="0" node2="2"/>
                <iidm:switch id="VL_virtual_way_41453026_1-400_BK_G_virtual_way_41453026_1-400" name="BK G_virtual_way_41453026_1" kind="BREAKER" retained="false" open="false" node1="2" node2="3"/>
                <iidm:switch id="VL_virtual_way_41453026_1-400_D_L_virtual_way_41453026_1-400" name="D L_virtual_way_41453026_1-" kind="DISCONNECTOR" retained="false" open="false" node1="0" node2="4"/>
                <iidm:switch id="VL_virtual_way_41453026_1-400_BK_L_virtual_way_41453026_1-400" name="BK L_virtual_way_41453026_1" kind="BREAKER" retained="false" open="false" node1="4" node2="5"/>
                <iidm:switch id="VL_virtual_way_41453026_1-400_D_way_203621818-400_s1" name="D way_203621818-400_s1" kind="DISCONNECTOR" retained="false" open="false" node1="0" node2="6"/>
                <iidm:switch id="VL_virtual_way_41453026_1-400_BK_way_203621818-400_s1" name="BK way_203621818-400_s1" kind="BREAKER" retained="false" open="false" node1="6" node2="7"/>
                <iidm:switch id="VL_virtual_way_41453026_1-400_D_way_41453026-400_s2" name="D way_41453026-400_s2" kind="DISCONNECTOR" retained="false" open="false" node1="0" node2="8"/>
                <iidm:switch id="VL_virtual_way_41453026_1-400_BK_way_41453026-400_s2" name="BK way_41453026-400_s2" kind="BREAKER" retained="false" open="false" node1="8" node2="9"/>
                <iidm:switch id="VL_virtual_way_41453026_1-400_D_way_86344182-400_s2" name="D way_86344182-400_s2" kind="DISCONNECTOR" retained="false" open="false" node1="0" node2="10"/>
                <iidm:switch id="VL_virtual_way_41453026_1-400_BK_way_86344182-400_s2" name="BK way_86344182-400_s2" kind="BREAKER" retained="false" open="false" node1="10" node2="11"/>
                <iidm:bus v="400.0" angle="-5.886648121205853" nodes="0,2,3,4,5,6,7,8,9,10,11"/>
            </iidm:nodeBreakerTopology>
            <iidm:generator id="G_virtual_way_41453026_1-400" energySource="OTHER" minP="0.0" maxP="1000.0" voltageRegulatorOn="true" targetP="36.347441077572235" targetV="400.0" targetQ="0.0" node="3" p="-15.864902034788159" q="88.09777824944646">
                <iidm:minMaxReactiveLimits minQ="-1.7976931348623157E308" maxQ="1.7976931348623157E308"/>
            </iidm:generator>
            <iidm:load id="L_virtual_way_41453026_1-400" loadType="UNDEFINED" p0="27.191535353456658" q0="2.719153535345666" node="5" p="27.191535353456658" q="2.719153535345666"/>
        </iidm:voltageLevel>
    </iidm:substation>
    <iidm:substation id="SS_virtual_way_85226749_1-400" name="SS_virtual_way_85226749_1-400" country="FR">
        <iidm:voltageLevel id="VL_virtual_way_85226749_1-400" nominalV="400.0" lowVoltageLimit="360.0" highVoltageLimit="440.00000000000006" topologyKind="NODE_BREAKER">
            <iidm:nodeBreakerTopology>
                <iidm:busbarSection id="VL_virtual_way_85226749_1-400_BBS1" name="Busbar 1" node="0"/>
                <iidm:busbarSection id="VL_virtual_way_85226749_1-400_BBS2" name="Busbar 2" node="1"/>
                <iidm:switch id="VL_virtual_way_85226749_1-400_D_G_virtual_way_85226749_1-400" name="D G_virtual_way_85226749_1-" kind="DISCONNECTOR" retained="false" open="false" node1="0" node2="2"/>
                <iidm:switch id="VL_virtual_way_85226749_1-400_BK_G_virtual_way_85226749_1-400" name="BK G_virtual_way_85226749_1" kind="BREAKER" retained="false" open="false" node1="2" node2="3"/>
                <iidm:switch id="VL_virtual_way_85226749_1-400_D_L_virtual_way_85226749_1-400" name="D L_virtual_way_85226749_1-" kind="DISCONNECTOR" retained="false" open="false" node1="0" node2="4"/>
                <iidm:switch id="VL_virtual_way_85226749_1-400_BK_L_virtual_way_85226749_1-400" name="BK L_virtual_way_85226749_1" kind="BREAKER" retained="false" open="false" node1="4" node2="5"/>
                <iidm:switch id="VL_virtual_way_85226749_1-400_D_way_182026368-400_s1" name="D way_182026368-400_s1" kind="DISCONNECTOR" retained="false" open="false" node1="0" node2="6"/>
                <iidm:switch id="VL_virtual_way_85226749_1-400_BK_way_182026368-400_s1" name="BK way_182026368-400_s1" kind="BREAKER" retained="false" open="false" node1="6" node2="7"/>
                <iidm:switch id="VL_virtual_way_85226749_1-400_D_way_182026370-400_s1" name="D way_182026370-400_s1" kind="DISCONNECTOR" retained="false" open="true" node1="0" node2="8"/>
                <iidm:switch id="VL_virtual_way_85226749_1-400_BK_way_182026370-400_s1" name="BK way_182026370-400_s1" kind="BREAKER" retained="false" open="false" node1="8" node2="9"/>
                <iidm:switch id="VL_virtual_way_85226749_1-400_D_way_182026371-400_s1" name="D way_182026371-400_s1" kind="DISCONNECTOR" retained="false" open="false" node1="0" node2="10"/>
                <iidm:switch id="VL_virtual_way_85226749_1-400_BK_way_182026371-400_s1" name="BK way_182026371-400_s1" kind="BREAKER" retained="false" open="false" node1="10" node2="11"/>
                <iidm:switch id="VL_virtual_way_85226749_1-400_D_way_182026375_a-400_s1" name="D way_182026375_a-400_s1" kind="DISCONNECTOR" retained="false" open="true" node1="0" node2="12"/>
                <iidm:switch id="VL_virtual_way_85226749_1-400_BK_way_182026375_a-400_s1" name="BK way_182026375_a-400_s1" kind="BREAKER" retained="false" open="false" node1="12" node2="13"/>
                <iidm:switch id="VL_virtual_way_85226749_1-400_D_way_210665254-400_s2" name="D way_210665254-400_s2" kind="DISCONNECTOR" retained="false" open="false" node1="0" node2="14"/>
                <iidm:switch id="VL_virtual_way_85226749_1-400_BK_way_210665254-400_s2" name="BK way_210665254-400_s2" kind="BREAKER" retained="false" open="false" node1="14" node2="15"/>
                <iidm:switch id="VL_virtual_way_85226749_1-400_D_way_85226749-400_s2" name="D way_85226749-400_s2" kind="DISCONNECTOR" retained="false" open="true" node1="0" node2="16"/>
                <iidm:switch id="VL_virtual_way_85226749_1-400_BK_way_85226749-400_s2" name="BK way_85226749-400_s2" kind="BREAKER" retained="false" open="false" node1="16" node2="17"/>
                <iidm:switch id="VL_virtual_way_85226749_1-400_COUPL_D1" name="Coupler D1" kind="DISCONNECTOR" retained="false" open="false" node1="0" node2="18"/>
                <iidm:switch id="VL_virtual_way_85226749_1-400_COUPL" name="Coupler BK" kind="BREAKER" retained="false" open="false" node1="18" node2="19"/>
                <iidm:switch id="VL_virtual_way_85226749_1-400_COUPL_D2" name="Coupler D2" kind="DISCONNECTOR" retained="false" open="false" node1="19" node2="1"/>
                <iidm:switch id="VL_virtual_way_85226749_1-400_D2_way_182026368-400_s1" name="SA.2" kind="DISCONNECTOR" retained="false" open="true" node1="1" node2="6"/>
                <iidm:switch id="VL_virtual_way_85226749_1-400_D2_way_182026370-400_s1" name="SA.2" kind="DISCONNECTOR" retained="false" open="false" node1="1" node2="8"/>
                <iidm:switch id="VL_virtual_way_85226749_1-400_D2_way_182026371-400_s1" name="SA.2" kind="DISCONNECTOR" retained="false" open="true" node1="1" node2="10"/>
                <iidm:switch id="VL_virtual_way_85226749_1-400_D2_way_182026375_a-400_s1" name="SA.2" kind="DISCONNECTOR" retained="false" open="false" node1="1" node2="12"/>
                <iidm:switch id="VL_virtual_way_85226749_1-400_D2_way_210665254-400_s2" name="SA.2" kind="DISCONNECTOR" retained="false" open="true" node1="1" node2="14"/>
                <iidm:switch id="VL_virtual_way_85226749_1-400_D2_way_85226749-400_s2" name="SA.2" kind="DISCONNECTOR" retained="false" open="false" node1="1" node2="16"/>
                <iidm:switch id="VL_virtual_way_85226749_1-400_D2_G_virtual_way_85226749_1-400" name="SA.2" kind="DISCONNECTOR" retained="false" open="true" node1="1" node2="2"/>
                <iidm:switch id="VL_virtual_way_85226749_1-400_D2_L_virtual_way_85226749_1-400" name="SA.2" kind="DISCONNECTOR" retained="false" open="true" node1="1" node2="4"/>
                <iidm:bus v="400.0" angle="-6.555322015733825" nodes="0,1,2,3,4,5,6,7,8,9,10,11,12,13,14,15,16,17,18,19"/>
            </iidm:nodeBreakerTopology>
            <iidm:generator id="G_virtual_way_85226749_1-400" energySource="OTHER" minP="0.0" maxP="1000.0" voltageRegulatorOn="true" targetP="31.740863415947718" targetV="400.0" targetQ="0.0" node="3" p="-11.258324373163642" q="149.2168442875076">
                <iidm:minMaxReactiveLimits minQ="-1.7976931348623157E308" maxQ="1.7976931348623157E308"/>
            </iidm:generator>
            <iidm:load id="L_virtual_way_85226749_1-400" loadType="UNDEFINED" p0="29.95548195043137" q0="2.995548195043137" node="5" p="29.95548195043137" q="2.995548195043137"/>
        </iidm:voltageLevel>
    </iidm:substation>
    <iidm:substation id="SS_virtual_way_88910320_0-400" name="SS_virtual_way_88910320_0-400" country="FR">
        <iidm:voltageLevel id="VL_virtual_way_88910320_0-400" nominalV="400.0" lowVoltageLimit="360.0" highVoltageLimit="440.00000000000006" topologyKind="NODE_BREAKER">
            <iidm:nodeBreakerTopology>
                <iidm:busbarSection id="VL_virtual_way_88910320_0-400_BBS1" name="Busbar 1" node="0"/>
                <iidm:switch id="VL_virtual_way_88910320_0-400_D_G_virtual_way_88910320_0-400" name="D G_virtual_way_88910320_0-" kind="DISCONNECTOR" retained="false" open="false" node1="0" node2="2"/>
                <iidm:switch id="VL_virtual_way_88910320_0-400_BK_G_virtual_way_88910320_0-400" name="BK G_virtual_way_88910320_0" kind="BREAKER" retained="false" open="false" node1="2" node2="3"/>
                <iidm:switch id="VL_virtual_way_88910320_0-400_D_L_virtual_way_88910320_0-400" name="D L_virtual_way_88910320_0-" kind="DISCONNECTOR" retained="false" open="false" node1="0" node2="4"/>
                <iidm:switch id="VL_virtual_way_88910320_0-400_BK_L_virtual_way_88910320_0-400" name="BK L_virtual_way_88910320_0" kind="BREAKER" retained="false" open="false" node1="4" node2="5"/>
                <iidm:switch id="VL_virtual_way_88910320_0-400_D_way_170045516-400_s1" name="D way_170045516-400_s1" kind="DISCONNECTOR" retained="false" open="false" node1="0" node2="6"/>
                <iidm:switch id="VL_virtual_way_88910320_0-400_BK_way_170045516-400_s1" name="BK way_170045516-400_s1" kind="BREAKER" retained="false" open="false" node1="6" node2="7"/>
                <iidm:switch id="VL_virtual_way_88910320_0-400_D_way_88910320-400_s1" name="D way_88910320-400_s1" kind="DISCONNECTOR" retained="false" open="false" node1="0" node2="8"/>
                <iidm:switch id="VL_virtual_way_88910320_0-400_BK_way_88910320-400_s1" name="BK way_88910320-400_s1" kind="BREAKER" retained="false" open="false" node1="8" node2="9"/>
                <iidm:switch id="VL_virtual_way_88910320_0-400_D_way_89034160-400_s2" name="D way_89034160-400_s2" kind="DISCONNECTOR" retained="false" open="false" node1="0" node2="10"/>
                <iidm:switch id="VL_virtual_way_88910320_0-400_BK_way_89034160-400_s2" name="BK way_89034160-400_s2" kind="BREAKER" retained="false" open="false" node1="10" node2="11"/>
                <iidm:bus v="400.0" angle="-7.445958643188629" nodes="0,2,3,4,5,6,7,8,9,10,11"/>
            </iidm:nodeBreakerTopology>
            <iidm:generator id="G_virtual_way_88910320_0-400" energySource="OTHER" minP="0.0" maxP="1000.0" voltageRegulatorOn="true" targetP="28.152424556053894" targetV="400.0" targetQ="0.0" node="3" p="-7.669885513269819" q="31.213771888249696">
                <iidm:minMaxReactiveLimits minQ="-1.7976931348623157E308" maxQ="1.7976931348623157E308"/>
            </iidm:generator>
            <iidm:load id="L_virtual_way_88910320_0-400" loadType="UNDEFINED" p0="32.10854526636766" q0="3.2108545266367665" node="5" p="32.10854526636766" q="3.2108545266367665"/>
        </iidm:voltageLevel>
    </iidm:substation>
    <iidm:substation id="SS_virtual_way_94524735_0-400" name="SS_virtual_way_94524735_0-400" country="FR">
        <iidm:voltageLevel id="VL_virtual_way_94524735_0-400" nominalV="400.0" lowVoltageLimit="360.0" highVoltageLimit="440.00000000000006" topologyKind="NODE_BREAKER">
            <iidm:nodeBreakerTopology>
                <iidm:busbarSection id="VL_virtual_way_94524735_0-400_BBS1" name="Busbar 1" node="0"/>
                <iidm:busbarSection id="VL_virtual_way_94524735_0-400_BBS2" name="Busbar 2" node="1"/>
                <iidm:switch id="VL_virtual_way_94524735_0-400_D_G_virtual_way_94524735_0-400" name="D G_virtual_way_94524735_0-" kind="DISCONNECTOR" retained="false" open="false" node1="0" node2="2"/>
                <iidm:switch id="VL_virtual_way_94524735_0-400_BK_G_virtual_way_94524735_0-400" name="BK G_virtual_way_94524735_0" kind="BREAKER" retained="false" open="false" node1="2" node2="3"/>
                <iidm:switch id="VL_virtual_way_94524735_0-400_D_L_virtual_way_94524735_0-400" name="D L_virtual_way_94524735_0-" kind="DISCONNECTOR" retained="false" open="false" node1="0" node2="4"/>
...